# Packages
 &PACKAGES
 useDiagnostics=.TRUE.,
 useMNC=.TRUE.,
 useRBCS=.TRUE.,
 &
